LTspice 26.0.1 for Windows
Circuit: C:\Facultate\An3\Scia\Proiect\Etaj 2\Etaj2 DCOP.net
Start Time: Tue Jan 20 03:17:01 2026
solver = Normal
Maximum thread count: 12
tnom = 27
temp = 27
method = trap
Direct Newton iteration succeeded in finding operating point.
Total elapsed time: 0.089 seconds.

Files loaded:
C:\Facultate\An3\Scia\Proiect\Etaj 2\Etaj2 DCOP.net
C:\Users\andre\AppData\Local\LTspice\lib\sub\ADI.lib

