LTspice 26.0.1 for Windows
Circuit: C:\Facultate\An3\Scia\Proiect\Etaj 2\Etaj2 AC Castig in banda de trecere specs.net
Start Time: Mon Jan 19 14:50:31 2026
solver = Normal
Maximum thread count: 12
tnom = 27
temp = 27
method = trap
Direct Newton iteration succeeded in finding operating point.
Total elapsed time: 0.083 seconds.

Files loaded:
C:\Facultate\An3\Scia\Proiect\Etaj 2\Etaj2 AC Castig in banda de trecere specs.net
C:\Users\andre\AppData\Local\LTspice\lib\sub\ADI.lib

