LTspice 26.0.1 for Windows
Circuit: C:\Facultate\An3\Scia\Proiect\Etaj 1\Etaj1 - THD Liniaritate.net
Start Time: Wed Jan 21 20:21:47 2026
solver = Normal
Maximum thread count: 12
tnom = 27
temp = 27
method = trap
Direct Newton iteration succeeded in finding operating point.
Total elapsed time: 0.441 seconds.

Files loaded:
C:\Facultate\An3\Scia\Proiect\Etaj 1\Etaj1 - THD Liniaritate.net
C:\Users\andre\AppData\Local\LTspice\lib\sub\ADI.lib

Fourier components of V(vout)
N-Period=1
DC component:-2.60652e-08

Harmonic	Frequency	 Fourier 	Normalized	 Phase  	Normalized
 Number 	  [Hz]   	Component	 Component	[degree]	Phase [deg]
    1   	 1.000e+03	 3.251e-01	 1.000e+00	  -90.00°	    0.00°
    2   	 2.000e+03	 7.412e-08	 2.280e-07	  179.30°	  269.30°
    3   	 3.000e+03	 5.141e-07	 1.582e-06	   88.61°	  178.61°
    4   	 4.000e+03	 1.717e-08	 5.281e-08	  179.69°	  269.68°
    5   	 5.000e+03	 7.407e-08	 2.279e-07	   87.74°	  177.74°
    6   	 6.000e+03	 7.671e-09	 2.360e-08	  177.47°	  267.47°
    7   	 7.000e+03	 2.266e-08	 6.971e-08	   86.55°	  176.55°
    8   	 8.000e+03	 4.818e-09	 1.482e-08	 -175.65°	  -85.65°
    9   	 9.000e+03	 8.384e-09	 2.579e-08	   84.78°	  174.78°
Partial Harmonic Distortion: 0.000162%
Total Harmonic Distortion:   0.000000%

