LTspice 26.0.1 for Windows
Circuit: C:\Facultate\An3\Scia\Proiect\Etaj 1\Etaj1_ac_castig_la_joasa_frecventa_specs.net
Start Time: Tue Jan 20 14:56:06 2026
solver = Normal
Maximum thread count: 12
tnom = 27
temp = 27
method = trap
Direct Newton iteration succeeded in finding operating point.
Total elapsed time: 0.145 seconds.

Files loaded:
C:\Facultate\An3\Scia\Proiect\Etaj 1\Etaj1_ac_castig_la_joasa_frecventa_specs.net
C:\Users\andre\AppData\Local\LTspice\lib\sub\ADI.lib

