LTspice 26.0.1 for Windows
Circuit: C:\Facultate\An3\Scia\Proiect\Etaj1.net
Start Time: Tue Jan 13 20:32:30 2026
solver = Normal
Maximum thread count: 12
tnom = 27
temp = 27
method = trap
Direct Newton iteration succeeded in finding operating point.
Total elapsed time: 0.105 seconds.

Files loaded:
C:\Facultate\An3\Scia\Proiect\Etaj1.net
C:\Users\andre\AppData\Local\LTspice\lib\sub\ADI.lib

