LTspice 26.0.1 for Windows
Circuit: C:\Facultate\An3\Scia\Proiect\Etaj1_SR.net
Start Time: Sun Jan 18 21:41:15 2026
solver = Normal
Maximum thread count: 12
tnom = 27
temp = 27
method = trap
Direct Newton iteration failed to find operating point.
Starting Gmin stepping
Gmin stepping succeeded in finding the operating point.

Total elapsed time: 0.338 seconds.

Files loaded:
C:\Facultate\An3\Scia\Proiect\Etaj1_SR.net
C:\Users\andre\AppData\Local\LTspice\lib\sub\ADI.lib

