LTspice 26.0.1 for Windows
Circuit: C:\Facultate\An3\Scia\Proiect\Etaj1_ac_banda_frecventa.net
Start Time: Sun Jan 18 20:59:37 2026
solver = Normal
Maximum thread count: 12
tnom = 27
temp = 27
method = trap
Direct Newton iteration succeeded in finding operating point.
Total elapsed time: 0.155 seconds.

Files loaded:
C:\Facultate\An3\Scia\Proiect\Etaj1_ac_banda_frecventa.net
C:\Users\andre\AppData\Local\LTspice\lib\sub\ADI.lib

