LTspice 26.0.1 for Windows
Circuit: C:\Facultate\An3\Scia\Proiect\Etaj 4\Draft1.net
Start Time: Wed Feb 25 22:21:14 2026
solver = Normal
Maximum thread count: 12
tnom = 27
temp = 27
method = trap
Direct Newton iteration failed to find operating point.
Starting Gmin stepping
Gmin stepping succeeded in finding the operating point.

Total elapsed time: 1.265 seconds.

Files loaded:
C:\Facultate\An3\Scia\Proiect\Etaj 4\Draft1.net
C:\Users\andre\AppData\Local\LTspice\lib\cmp\standard.dio
C:\Users\andre\AppData\Local\LTspice\lib\cmp\standard.bjt
C:\Users\andre\AppData\Local\LTspice\lib\sub\ADI.lib

