LTspice 26.0.1 for Windows
Circuit: C:\Facultate\An3\Scia\Proiect\Circuit Total\Circuit Total.net
Start Time: Wed Jan 21 21:29:08 2026
solver = Normal
Maximum thread count: 12
tnom = 27
temp = 27
method = trap
Direct Newton iteration failed to find operating point.
Starting Gmin stepping
Gmin stepping succeeded in finding the operating point.

Total elapsed time: 2.088 seconds.

Files loaded:
C:\Facultate\An3\Scia\Proiect\Circuit Total\Circuit Total.net
C:\Users\andre\AppData\Local\LTspice\lib\cmp\standard.dio
C:\Users\andre\AppData\Local\LTspice\lib\sub\ADI.lib

