LTspice 26.0.1 for Windows
Circuit: C:\Facultate\An3\Scia\Proiect\Etaj 3\Etaj 3 - Transient Castig Minim + Input M.net
Start Time: Tue Jan 20 01:13:53 2026
solver = Normal
Maximum thread count: 12
tnom = 27
temp = 27
method = trap
Direct Newton iteration succeeded in finding operating point.
Total elapsed time: 0.156 seconds.

Files loaded:
C:\Facultate\An3\Scia\Proiect\Etaj 3\Etaj 3 - Transient Castig Minim + Input M.net
C:\Users\andre\AppData\Local\LTspice\lib\sub\ADI.lib

Fourier components of V(Vout)
N-Period=1
DC component:1.86616e-05

Harmonic	Frequency	 Fourier 	Normalized	 Phase  	Normalized
 Number 	  [Hz]   	Component	 Component	[degree]	Phase [deg]
    1   	 1.400e+04	 1.768e+00	 1.000e+00	   89.99°	    0.00°
    2   	 2.800e+04	 2.386e-05	 1.350e-05	  178.47°	   88.48°
    3   	 4.200e+04	 2.648e-04	 1.498e-04	  -77.37°	 -167.36°
    4   	 5.600e+04	 1.418e-05	 8.023e-06	   -0.91°	  -90.90°
    5   	 7.000e+04	 2.601e-04	 1.471e-04	  113.72°	   23.73°
    6   	 8.400e+04	 2.291e-05	 1.296e-05	  174.99°	   85.00°
    7   	 9.800e+04	 2.437e-04	 1.379e-04	  -59.27°	 -149.26°
    8   	 1.120e+05	 1.212e-05	 6.858e-06	   -3.48°	  -93.47°
    9   	 1.260e+05	 2.373e-04	 1.342e-04	  130.75°	   40.76°
Partial Harmonic Distortion: 0.028560%
Total Harmonic Distortion:   0.112259%

