LTspice 26.0.1 for Windows
Circuit: C:\Facultate\An3\Scia\Proiect\Etaj 3\Etaj 3 - AC Toate treptele.net
Start Time: Tue Jan 20 00:05:20 2026

.step run=1
solver = Normal
Maximum thread count: 12
tnom = 27
temp = 27
method = trap
Direct Newton iteration succeeded in finding operating point.

.step run=2
Direct Newton iteration succeeded in finding operating point.

.step run=3
Direct Newton iteration succeeded in finding operating point.

.step run=4
Direct Newton iteration succeeded in finding operating point.
Total elapsed time: 0.217 seconds.

Files loaded:
C:\Facultate\An3\Scia\Proiect\Etaj 3\Etaj 3 - AC Toate treptele.net
C:\Users\andre\AppData\Local\LTspice\lib\sub\ADI.lib

