LTspice 26.0.1 for Windows
Circuit: C:\Facultate\An3\Scia\Proiect\Etaj 3\Etaj 3 - Transient.net
Start Time: Tue Jan 20 00:57:48 2026
solver = Normal
Maximum thread count: 12
tnom = 27
temp = 27
method = trap
Direct Newton iteration succeeded in finding operating point.
Total elapsed time: 0.124 seconds.

Files loaded:
C:\Facultate\An3\Scia\Proiect\Etaj 3\Etaj 3 - Transient.net
C:\Users\andre\AppData\Local\LTspice\lib\sub\ADI.lib

Fourier components of V(Vout)
N-Period=1
DC component:-0.00844117

Harmonic	Frequency	 Fourier 	Normalized	 Phase  	Normalized
 Number 	  [Hz]   	Component	 Component	[degree]	Phase [deg]
    1   	 1.400e+04	 1.779e+00	 1.000e+00	   89.95°	    0.00°
    2   	 2.800e+04	 6.687e-06	 3.758e-06	    9.49°	  -80.47°
    3   	 4.200e+04	 2.059e-04	 1.157e-04	  -75.81°	 -165.76°
    4   	 5.600e+04	 2.756e-06	 1.549e-06	 -100.84°	 -190.79°
    5   	 7.000e+04	 1.996e-04	 1.122e-04	  112.58°	   22.62°
    6   	 8.400e+04	 2.232e-06	 1.255e-06	   82.16°	   -7.79°
    7   	 9.800e+04	 1.964e-04	 1.104e-04	  -57.31°	 -147.26°
    8   	 1.120e+05	 9.608e-06	 5.400e-06	  -18.89°	 -108.84°
    9   	 1.260e+05	 1.854e-04	 1.042e-04	  131.51°	   41.56°
Partial Harmonic Distortion: 0.022154%
Total Harmonic Distortion:   0.111256%

